[Format]      =  4.0
[Frequency]   =  0
[Precision]   =  1e-008
[MinAngle]    =  30
[Depth]       =  1
[LengthUnits] =  millimeters
[ProblemType] =  axisymmetric
[Coordinates] =  cartesian
[ACSolver]    =  0
[Comment]     =  "Add comments here."
[PointProps]   = 0
[BdryProps]   = 1
  <BeginBdry>
    <BdryName> = "Open"
    <BdryType> = 2
    <A_0> = 0
    <A_1> = 0
    <A_2> = 0
    <Phi> = 0
    <c0> = 9094570.0687513128
    <c0i> = 0
    <c1> = 0
    <c1i> = 0
    <Mu_ssd> = 0
    <Sigma_ssd> = 0
  <EndBdry>
[BlockProps]  = 3
  <BeginBlock>
    <BlockName> = "Air"
    <Mu_x> = 1
    <Mu_y> = 1
    <H_c> = 0
    <H_cAngle> = 0
    <J_re> = 0
    <J_im> = 0
    <Sigma> = 0
    <d_lam> = 0
    <Phi_h> = 0
    <Phi_hx> = 0
    <Phi_hy> = 0
    <LamType> = 0
    <LamFill> = 1
    <NStrands> = 0
    <WireD> = 0
    <BHPoints> = 0
  <EndBlock>
  <BeginBlock>
    <BlockName> = "Magnet"
    <Mu_x> = 1.8859999999999999
    <Mu_y> = 1.8859999999999999
    <H_c> = 191262
    <H_cAngle> = 0
    <J_re> = 0
    <J_im> = 0
    <Sigma> = 0
    <d_lam> = 0
    <Phi_h> = 0
    <Phi_hx> = 0
    <Phi_hy> = 0
    <LamType> = 1
    <LamFill> = 1
    <NStrands> = 0
    <WireD> = 1
    <BHPoints> = 25
      0	0
      0.10034800000000001	8233.8839250000001
      0.14876	16191.633925
      0.15992100000000001	24149.383924999998
      0.17108200000000001	32107.133924999998
      0.18224399999999999	40064.883925000002
      0.19340499999999999	48022.633925000002
      0.204566	55980.383925000002
      0.215728	63938.133925000002
      0.22688900000000001	71895.883925000002
      0.23805000000000001	79853.633925000002
      0.24921099999999999	87811.383925000002
      0.26037300000000002	95769.133925000002
      0.271534	103726.883925
      0.28269499999999997	111684.633925
      0.29385600000000001	119642.383925
      0.30501800000000001	127600.133925
      0.31617899999999999	135557.883925
      0.32734000000000002	143515.633925
      0.338501	151473.383925
      0.349663	159431.133925
      0.36082399999999998	167388.883925
      0.37198500000000001	175346.633925
      0.38314700000000002	183304.383925
      0.39430799999999999	191262.133925
  <EndBlock>
  <BeginBlock>
    <BlockName> = "Iron"
    <Mu_x> = 14782
    <Mu_y> = 14782
    <H_c> = 0
    <H_cAngle> = 0
    <J_re> = 0
    <J_im> = 0
    <Sigma> = 0
    <d_lam> = 10.44
    <Phi_h> = 0
    <Phi_hx> = 0
    <Phi_hy> = 0
    <LamType> = 1
    <LamFill> = 1
    <NStrands> = 0
    <WireD> = 0
    <BHPoints> = 21
      0	0
      0.22706499999999999	13.898400000000001
      0.45412999999999998	27.796700000000001
      0.68119499999999999	42.397399999999998
      0.90825999999999996	61.415700000000001
      1.13533	82.382400000000004
      1.36239	144.66900000000001
      1.58935	897.75999999999999
      1.81236	4581.7399999999998
      2.01004	17736.200000000001
      2.1331600000000002	41339.300000000003
      2.1999900000000001	68321.800000000003
      2.2547899999999998	95685.5
      2.2999299999999998	123355
      2.3425099999999999	151083
      2.3787600000000002	178954
      2.4150100000000001	206825
      2.45126	234696
      2.4874999999999998	262568
      2.5237500000000002	290439
      2.5600000000000001	318310
  <EndBlock>
[CircuitProps]  = 0
[NumPoints] = 22
5	0	0	0
5	18.999917	0	0
9	18.999917	0	0
9	15.994621	0	0
7	5	0	0
7	4	0	0
14.5	4	0	0
14.5	2	0	0
12	2	0	0
12	0	0	0
10	18.999917	0	0
13.508858	18.999917	0	0
13.508858	17.999917	0	0
14.194093000000001	17.999917	0	0
14.194093000000001	15.994621	0	0
10	15.994621	0	0
12	15.994621	0	0
12	4	0	0
13	4	0	0
13	15.994621	0	0
0	100	0	0
0	-75	0	0
[NumSegments] = 23
0	1	-1	0	0	0
1	2	-1	0	0	0
2	3	-1	0	0	0
3	4	-1	0	0	0
4	5	-1	0	0	0
5	17	-1	0	0	0
17	18	-1	0	0	0
18	6	-1	0	0	0
6	7	-1	0	0	0
7	8	-1	0	0	0
8	9	-1	0	0	0
9	0	-1	0	0	0
16	17	-1	0	0	0
18	19	-1	0	0	0
19	16	-1	0	0	0
10	11	-1	0	0	0
11	12	-1	0	0	0
12	13	-1	0	0	0
13	14	-1	0	0	0
14	19	-1	0	0	0
16	15	-1	0	0	0
15	10	-1	0	0	0
21	20	-1	0	0	0
[NumArcSegments] = 1
21	20	180	2.5	1	0	0
[NumHoles] = 0
[NumBlockLabels] = 4
5.0499999999999998	0.050000000000000003	3	-1	0	0	0	1	0
12.050000000000001	15.944621	2	-1	0	90	0	1	0
10.050000000000001	18.949916999999999	3	-1	0	0	0	1	0
0.10000000000000001	0.10000000000000001	1	-1	0	0	0	1	0
